<?xml version="1.0" encoding="UTF-8"?>

<!-- generated on 2024-10-01 10:18:26.281344 by osmwebwizard.py v1_20_0+0002-343658e7c64
<configuration>
    <net-file value="C:\Users\laboratorio\Sumo\2024-10-01-10-18-12\osm.net.xml.gz"/>
    <output-trip-file value="C:\Users\laboratorio\Sumo\2024-10-01-10-18-12\osm.passenger.trips.xml"/>
    <route-file value="C:\Users\laboratorio\Sumo\2024-10-01-10-18-12\osm.passenger.rou.xml"/>
    <prefix value="veh"/>
    <trip-attributes value="departLane=&quot;best&quot;"/>
    <fringe-start-attributes value="departSpeed=&quot;max&quot;"/>
    <vehicle-class value="passenger"/>
    <lanes value="True"/>
    <fringe-factor value="5"/>
    <allow-fringe.min-length value="1000.0"/>
    <via-edge-types value="highway.motorway,highway.motorway_link,highway.trunk_link,highway.primary_link,highway.secondary_link,highway.tertiary_link"/>
    <min-distance value="300.0"/>
    <min-distance.fringe value="10.0"/>
    <remove-loops value="True"/>
    <validate value="True"/>
    <insertion-density value="12.0"/>
</configuration>
-->

<!-- generated on 2024-10-01 10:18:25 by Eclipse SUMO duarouter Version 1.20.0
<configuration xmlns:xsi="http://www.w3.org/2001/XMLSchema-instance" xsi:noNamespaceSchemaLocation="http://sumo.dlr.de/xsd/duarouterConfiguration.xsd">

    <input>
        <net-file value="C:\Users\laboratorio\Sumo\2024-10-01-10-18-12\osm.net.xml.gz"/>
        <route-files value="C:\Users\laboratorio\Sumo\2024-10-01-10-18-12\osm.passenger.trips.xml"/>
    </input>

    <output>
        <output-file value="C:\Users\laboratorio\Sumo\2024-10-01-10-18-12\osm.passenger.trips.xml.tmp"/>
        <alternatives-output value="NUL"/>
        <write-trips value="true"/>
    </output>

    <processing>
        <remove-loops value="true"/>
    </processing>

    <time>
        <begin value="0.0"/>
        <end value="3600.0"/>
    </time>

    <report>
        <no-warnings value="true"/>
        <ignore-errors value="true"/>
        <no-step-log value="true"/>
    </report>

</configuration>
-->

<routes xmlns:xsi="http://www.w3.org/2001/XMLSchema-instance" xsi:noNamespaceSchemaLocation="http://sumo.dlr.de/xsd/routes_file.xsd">
    <vType id="veh_passenger" vClass="passenger"/>
    <trip id="veh1" type="veh_passenger" depart="2.61" departLane="best" departSpeed="max" from="-540518085" to="-406078188"/>
    <trip id="veh2" type="veh_passenger" depart="5.22" departLane="best" from="369024788#1" to="372719848#1"/>
    <trip id="veh3" type="veh_passenger" depart="7.83" departLane="best" from="50783249#1" to="-193133931"/>
    <trip id="veh4" type="veh_passenger" depart="10.44" departLane="best" from="-193133932" to="-193026220#1"/>
    <trip id="veh5" type="veh_passenger" depart="13.05" departLane="best" from="-377045470#1" to="240733802"/>
    <trip id="veh6" type="veh_passenger" depart="15.66" departLane="best" from="-193026218#1" to="-377044933#1"/>
    <trip id="veh7" type="veh_passenger" depart="18.26" departLane="best" from="360929856#0" to="330066203"/>
    <trip id="veh8" type="veh_passenger" depart="20.87" departLane="best" departSpeed="max" from="-386046525" to="358980056#0"/>
    <trip id="veh9" type="veh_passenger" depart="23.48" departLane="best" from="-424816477#0" to="192657712#5"/>
    <trip id="veh10" type="veh_passenger" depart="26.09" departLane="best" from="979874652#0" to="368091941#1"/>
    <trip id="veh11" type="veh_passenger" depart="28.70" departLane="best" from="193026208#0" to="360051161#1"/>
    <trip id="veh12" type="veh_passenger" depart="31.31" departLane="best" from="980735079#0" to="193030349"/>
    <trip id="veh13" type="veh_passenger" depart="33.92" departLane="best" from="-193273692" to="194491991#0"/>
    <trip id="veh14" type="veh_passenger" depart="36.53" departLane="best" departSpeed="max" from="49793803#0" to="358981136#1"/>
    <trip id="veh15" type="veh_passenger" depart="39.14" departLane="best" from="406606733#2" to="369024791#1"/>
    <trip id="veh16" type="veh_passenger" depart="41.75" departLane="best" from="259426347#1" to="981022848#0"/>
    <trip id="veh17" type="veh_passenger" depart="44.36" departLane="best" from="193032316#6" to="341783954#0"/>
    <trip id="veh18" type="veh_passenger" depart="46.97" departLane="best" from="-468896810" to="360923887#10"/>
    <trip id="veh20" type="veh_passenger" depart="52.18" departLane="best" departSpeed="max" from="366529375" to="-193032309#0"/>
    <trip id="veh21" type="veh_passenger" depart="54.79" departLane="best" from="-396378807#0" to="193023737"/>
    <trip id="veh22" type="veh_passenger" depart="57.40" departLane="best" from="-193133903#1" to="-455285855#0"/>
    <trip id="veh23" type="veh_passenger" depart="60.01" departLane="best" departSpeed="max" from="-193809812" to="154237196"/>
    <trip id="veh25" type="veh_passenger" depart="65.23" departLane="best" departSpeed="max" from="193032309#0" to="-387154803#0"/>
    <trip id="veh26" type="veh_passenger" depart="67.84" departLane="best" from="50783249#2" to="-766214123"/>
    <trip id="veh28" type="veh_passenger" depart="73.06" departLane="best" departSpeed="max" from="-360924351#1" to="369024791#1"/>
    <trip id="veh29" type="veh_passenger" depart="75.67" departLane="best" from="-344330261#3" to="193133906"/>
    <trip id="veh30" type="veh_passenger" depart="78.28" departLane="best" from="988420317" to="360935202#0"/>
    <trip id="veh31" type="veh_passenger" depart="80.88" departLane="best" from="305435188#0" to="-366528694#0"/>
    <trip id="veh32" type="veh_passenger" depart="83.49" departLane="best" from="485024034" to="396388572#2"/>
    <trip id="veh33" type="veh_passenger" depart="86.10" departLane="best" from="-396378808#1" to="-193026224#6"/>
    <trip id="veh34" type="veh_passenger" depart="88.71" departLane="best" from="192657712#7" to="1026172919"/>
    <trip id="veh36" type="veh_passenger" depart="93.93" departLane="best" departSpeed="max" from="504333065#0" to="193026216"/>
    <trip id="veh37" type="veh_passenger" depart="96.54" departLane="best" from="360935200#0" to="193269585"/>
    <trip id="veh38" type="veh_passenger" depart="99.15" departLane="best" from="55354009#1" to="226668205#2"/>
    <trip id="veh39" type="veh_passenger" depart="101.76" departLane="best" departSpeed="max" from="-50676756" to="-50783249#2"/>
    <trip id="veh40" type="veh_passenger" depart="104.37" departLane="best" departSpeed="max" from="309097367#0" to="-986057028#0"/>
    <trip id="veh41" type="veh_passenger" depart="106.98" departLane="best" from="344153346#0" to="539518304#0"/>
    <trip id="veh42" type="veh_passenger" depart="109.59" departLane="best" from="-193133885#0" to="-396388561#0"/>
    <trip id="veh43" type="veh_passenger" depart="112.19" departLane="best" from="990422494" to="253047825#3"/>
    <trip id="veh44" type="veh_passenger" depart="114.80" departLane="best" departSpeed="max" from="-193270188" to="-193032309#0"/>
    <trip id="veh46" type="veh_passenger" depart="120.02" departLane="best" from="50301275#2" to="194491987"/>
    <trip id="veh47" type="veh_passenger" depart="122.63" departLane="best" from="-193133879#1" to="193133908#0"/>
    <trip id="veh48" type="veh_passenger" depart="125.24" departLane="best" from="990167604#0" to="-274631585#3"/>
    <trip id="veh49" type="veh_passenger" depart="127.85" departLane="best" departSpeed="max" from="981043856#0" to="503896684"/>
    <trip id="veh50" type="veh_passenger" depart="130.46" departLane="best" from="-193026196#5" to="368708847#5"/>
    <trip id="veh51" type="veh_passenger" depart="133.07" departLane="best" from="360938369" to="305435187#1"/>
    <trip id="veh52" type="veh_passenger" depart="135.68" departLane="best" from="50783249#2" to="982044004#0"/>
    <trip id="veh53" type="veh_passenger" depart="138.29" departLane="best" from="-199353266#0" to="199421037#1"/>
    <trip id="veh54" type="veh_passenger" depart="140.90" departLane="best" departSpeed="max" from="194491996" to="978455013#1"/>
    <trip id="veh55" type="veh_passenger" depart="143.50" departLane="best" from="504333064" to="193133902#2"/>
    <trip id="veh56" type="veh_passenger" depart="146.11" departLane="best" from="231972355#1" to="-361950929#0"/>
    <trip id="veh57" type="veh_passenger" depart="148.72" departLane="best" from="-548030803#0" to="504333064"/>
    <trip id="veh58" type="veh_passenger" depart="151.33" departLane="best" departSpeed="max" from="1228261601" to="360935200#1"/>
    <trip id="veh59" type="veh_passenger" depart="153.94" departLane="best" from="358980059" to="-344857224"/>
    <trip id="veh60" type="veh_passenger" depart="156.55" departLane="best" from="386046543" to="-305435188#0"/>
    <trip id="veh61" type="veh_passenger" depart="159.16" departLane="best" from="396378813#0" to="274631586#2"/>
    <trip id="veh62" type="veh_passenger" depart="161.77" departLane="best" from="-154237114#1" to="193030328#1"/>
    <trip id="veh63" type="veh_passenger" depart="164.38" departLane="best" from="-193026210#1" to="754719368#1"/>
    <trip id="veh64" type="veh_passenger" depart="166.99" departLane="best" departSpeed="max" from="504333065#0" to="475997382#2"/>
    <trip id="veh65" type="veh_passenger" depart="169.60" departLane="best" from="-986057032" to="-193132123#1"/>
    <trip id="veh66" type="veh_passenger" depart="172.21" departLane="best" departSpeed="max" from="504333065#0" to="912572268#1"/>
    <trip id="veh67" type="veh_passenger" depart="174.82" departLane="best" from="-193133908#4" to="232064218#0"/>
    <trip id="veh68" type="veh_passenger" depart="177.42" departLane="best" from="-193133886#2" to="396378805"/>
    <trip id="veh69" type="veh_passenger" depart="180.03" departLane="best" from="386046548" to="274631584#5"/>
    <trip id="veh70" type="veh_passenger" depart="182.64" departLane="best" from="226668205#1" to="341783023#1"/>
    <trip id="veh72" type="veh_passenger" depart="187.86" departLane="best" from="193134644#1" to="-396378806"/>
    <trip id="veh73" type="veh_passenger" depart="190.47" departLane="best" from="269016266#1" to="372642573"/>
    <trip id="veh74" type="veh_passenger" depart="193.08" departLane="best" departSpeed="max" from="-366529377" to="-193026212#2"/>
    <trip id="veh76" type="veh_passenger" depart="198.30" departLane="best" from="193325337" to="259426346#0"/>
    <trip id="veh77" type="veh_passenger" depart="200.91" departLane="best" from="-226668203#0" to="406078190"/>
    <trip id="veh78" type="veh_passenger" depart="203.52" departLane="best" from="193026205#1" to="358977809"/>
    <trip id="veh79" type="veh_passenger" depart="206.13" departLane="best" from="396378809#0" to="396388564"/>
    <trip id="veh80" type="veh_passenger" depart="208.73" departLane="best" from="-193133887#3" to="-360929855#1"/>
    <trip id="veh81" type="veh_passenger" depart="211.34" departLane="best" from="-396378808#1" to="547090203#0"/>
    <trip id="veh82" type="veh_passenger" depart="213.95" departLane="best" from="50013146#0" to="-193133888#1"/>
    <trip id="veh83" type="veh_passenger" depart="216.56" departLane="best" from="-396388584" to="360938372#1"/>
    <trip id="veh84" type="veh_passenger" depart="219.17" departLane="best" from="-377044936#2" to="-305435188#2"/>
    <trip id="veh85" type="veh_passenger" depart="221.78" departLane="best" from="226668200" to="406062451#0"/>
    <trip id="veh86" type="veh_passenger" depart="224.39" departLane="best" from="424816476#0" to="-368708847#2"/>
    <trip id="veh88" type="veh_passenger" depart="229.61" departLane="best" from="193134644#1" to="231295692#0"/>
    <trip id="veh89" type="veh_passenger" depart="232.22" departLane="best" from="368494313#0" to="360938963"/>
    <trip id="veh90" type="veh_passenger" depart="234.83" departLane="best" departSpeed="max" from="982058343" to="-194491992#1"/>
    <trip id="veh91" type="veh_passenger" depart="237.44" departLane="best" from="193133887#2" to="-193032314#0"/>
    <trip id="veh92" type="veh_passenger" depart="240.04" departLane="best" from="50014718#3" to="-50783249#8"/>
    <trip id="veh93" type="veh_passenger" depart="242.65" departLane="best" from="361474363#0" to="223372104"/>
    <trip id="veh94" type="veh_passenger" depart="245.26" departLane="best" from="193133932" to="154237196"/>
    <trip id="veh95" type="veh_passenger" depart="247.87" departLane="best" from="-457728103" to="633932891"/>
    <trip id="veh96" type="veh_passenger" depart="250.48" departLane="best" from="193809813#1" to="503896685"/>
    <trip id="veh97" type="veh_passenger" depart="253.09" departLane="best" from="-407392594" to="-193032315#0"/>
    <trip id="veh98" type="veh_passenger" depart="255.70" departLane="best" from="990433207" to="49732814#1"/>
    <trip id="veh99" type="veh_passenger" depart="258.31" departLane="best" from="49793804#1" to="986770209"/>
    <trip id="veh100" type="veh_passenger" depart="260.92" departLane="best" departSpeed="max" from="231293653" to="-396378808#2"/>
    <trip id="veh101" type="veh_passenger" depart="263.53" departLane="best" from="193133886#2" to="-193132128#0"/>
    <trip id="veh102" type="veh_passenger" depart="266.14" departLane="best" from="193032316#7" to="982058337"/>
    <trip id="veh103" type="veh_passenger" depart="268.75" departLane="best" departSpeed="max" from="-50676756" to="406021800"/>
    <trip id="veh104" type="veh_passenger" depart="271.35" departLane="best" from="194491997" to="194491987"/>
    <trip id="veh106" type="veh_passenger" depart="276.57" departLane="best" from="-341783023#5" to="193026198#0"/>
    <trip id="veh107" type="veh_passenger" depart="279.18" departLane="best" departSpeed="max" from="981043856#0" to="344330284#2"/>
    <trip id="veh108" type="veh_passenger" depart="281.79" departLane="best" from="274631584#3" to="386046537"/>
    <trip id="veh109" type="veh_passenger" depart="284.40" departLane="best" departSpeed="max" from="-193032317#6" to="358977624"/>
    <trip id="veh110" type="veh_passenger" depart="287.01" departLane="best" from="232064217#1" to="50014718#3"/>
    <trip id="veh111" type="veh_passenger" depart="289.62" departLane="best" from="-344153337#1" to="633932891"/>
    <trip id="veh112" type="veh_passenger" depart="292.23" departLane="best" from="-193133904#0" to="-366528694#6"/>
    <trip id="veh113" type="veh_passenger" depart="294.84" departLane="best" from="-344330284#1" to="-361822381#1"/>
    <trip id="veh114" type="veh_passenger" depart="297.45" departLane="best" from="-396388561#0" to="-253047824#1"/>
    <trip id="veh115" type="veh_passenger" depart="300.06" departLane="best" from="239925092" to="-50783249#1"/>
    <trip id="veh116" type="veh_passenger" depart="302.66" departLane="best" from="-344330284#0" to="360923887#11"/>
    <trip id="veh117" type="veh_passenger" depart="305.27" departLane="best" from="-386046547" to="358977623#1"/>
    <trip id="veh118" type="veh_passenger" depart="307.88" departLane="best" from="-253047824#1" to="754768291"/>
    <trip id="veh119" type="veh_passenger" depart="310.49" departLane="best" from="-406069597#1" to="193269585"/>
    <trip id="veh120" type="veh_passenger" depart="313.10" departLane="best" from="-360936226#1" to="193026199#2"/>
    <trip id="veh121" type="veh_passenger" depart="315.71" departLane="best" departSpeed="max" from="192657978" to="386046548"/>
    <trip id="veh122" type="veh_passenger" depart="318.32" departLane="best" from="-193133889#1" to="226668205#0"/>
    <trip id="veh123" type="veh_passenger" depart="320.93" departLane="best" from="990422497#0" to="990167604#0"/>
    <trip id="veh124" type="veh_passenger" depart="323.54" departLane="best" from="193133890#0" to="-396378808#0"/>
    <trip id="veh125" type="veh_passenger" depart="326.15" departLane="best" departSpeed="max" from="-50676756" to="754768289"/>
    <trip id="veh126" type="veh_passenger" depart="328.76" departLane="best" from="504333065#1" to="50676753#0"/>
    <trip id="veh128" type="veh_passenger" depart="333.98" departLane="best" from="471955628" to="368091971#1"/>
    <trip id="veh129" type="veh_passenger" depart="336.58" departLane="best" from="358980528#0" to="-986057033"/>
    <trip id="veh130" type="veh_passenger" depart="339.19" departLane="best" from="360933444" to="-192657978"/>
    <trip id="veh131" type="veh_passenger" depart="341.80" departLane="best" from="462346954#0" to="193026199#0"/>
    <trip id="veh132" type="veh_passenger" depart="344.41" departLane="best" from="360935208#1" to="868802302"/>
    <trip id="veh133" type="veh_passenger" depart="347.02" departLane="best" from="253047824#1" to="-239631042"/>
    <trip id="veh135" type="veh_passenger" depart="352.24" departLane="best" departSpeed="max" from="-539518304#1" to="358981138#0"/>
    <trip id="veh136" type="veh_passenger" depart="354.85" departLane="best" from="368486584#2" to="377045468"/>
    <trip id="veh138" type="veh_passenger" depart="360.07" departLane="best" from="231295698#0" to="547090203#0"/>
    <trip id="veh139" type="veh_passenger" depart="362.68" departLane="best" departSpeed="max" from="49793803#0" to="-193406092#2"/>
    <trip id="veh140" type="veh_passenger" depart="365.29" departLane="best" from="193134644#1" to="154237186#4"/>
    <trip id="veh141" type="veh_passenger" depart="367.89" departLane="best" from="-154237186#4" to="396388562"/>
    <trip id="veh143" type="veh_passenger" depart="373.11" departLane="best" from="369024791#1" to="341783023#7"/>
    <trip id="veh144" type="veh_passenger" depart="375.72" departLane="best" from="193189977" to="-192657978"/>
    <trip id="veh145" type="veh_passenger" depart="378.33" departLane="best" from="-193133891" to="507082099"/>
    <trip id="veh146" type="veh_passenger" depart="380.94" departLane="best" from="526262445#0" to="-330750483#2"/>
    <trip id="veh147" type="veh_passenger" depart="383.55" departLane="best" from="191706895#0" to="539518304#0"/>
    <trip id="veh148" type="veh_passenger" depart="386.16" departLane="best" from="406062451#1" to="503896684"/>
    <trip id="veh150" type="veh_passenger" depart="391.38" departLane="best" from="193030340" to="980937243"/>
    <trip id="veh151" type="veh_passenger" depart="393.99" departLane="best" from="396388560" to="221143746"/>
    <trip id="veh152" type="veh_passenger" depart="396.60" departLane="best" from="193133890#2" to="360923887#3"/>
    <trip id="veh153" type="veh_passenger" depart="399.20" departLane="best" from="-341783023#5" to="754719368#2"/>
    <trip id="veh154" type="veh_passenger" depart="401.81" departLane="best" from="50301275#1" to="981575457#0"/>
    <trip id="veh155" type="veh_passenger" depart="404.42" departLane="best" from="455285855#0" to="50676756"/>
    <trip id="veh156" type="veh_passenger" depart="407.03" departLane="best" from="-193026216" to="377033295"/>
    <trip id="veh157" type="veh_passenger" depart="409.64" departLane="best" from="193026200#2" to="754719369#0"/>
    <trip id="veh158" type="veh_passenger" depart="412.25" departLane="best" from="-406078191#1" to="504322133#2"/>
    <trip id="veh159" type="veh_passenger" depart="414.86" departLane="best" from="455285855#0" to="1026172918"/>
    <trip id="veh160" type="veh_passenger" depart="417.47" departLane="best" from="396388575#0" to="226668199#0"/>
    <trip id="veh161" type="veh_passenger" depart="420.08" departLane="best" from="504322133#1" to="503896683#2"/>
    <trip id="veh162" type="veh_passenger" depart="422.69" departLane="best" departSpeed="max" from="-386046525" to="468138759"/>
    <trip id="veh163" type="veh_passenger" depart="425.30" departLane="best" from="199421616#2" to="193026204#3"/>
    <trip id="veh164" type="veh_passenger" depart="427.91" departLane="best" from="406062451#0" to="-406490708#3"/>
    <trip id="veh165" type="veh_passenger" depart="430.51" departLane="best" from="-193026213#1" to="-372786655"/>
    <trip id="veh166" type="veh_passenger" depart="433.12" departLane="best" from="193026198#2" to="504322133#2"/>
    <trip id="veh167" type="veh_passenger" depart="435.73" departLane="best" departSpeed="max" from="981043856#0" to="154237216#0"/>
    <trip id="veh170" type="veh_passenger" depart="443.56" departLane="best" from="910969911#0" to="-239631042"/>
    <trip id="veh171" type="veh_passenger" depart="446.17" departLane="best" departSpeed="max" from="981043856#0" to="-361950929#0"/>
    <trip id="veh172" type="veh_passenger" depart="448.78" departLane="best" from="980996795" to="1026172915"/>
    <trip id="veh173" type="veh_passenger" depart="451.39" departLane="best" from="-194491990#1" to="199421037#0"/>
    <trip id="veh174" type="veh_passenger" depart="454.00" departLane="best" from="368494313#0" to="-193026214#0"/>
    <trip id="veh177" type="veh_passenger" depart="461.82" departLane="best" from="-468894471#3" to="368494305#0"/>
    <trip id="veh178" type="veh_passenger" depart="464.43" departLane="best" from="-154237114#3" to="702531361#0"/>
    <trip id="veh179" type="veh_passenger" depart="467.04" departLane="best" from="269016265#0" to="368708847#2"/>
    <trip id="veh180" type="veh_passenger" depart="469.65" departLane="best" from="361951569#0" to="360938625#0"/>
    <trip id="veh181" type="veh_passenger" depart="472.26" departLane="best" from="193030340" to="-193133887#3"/>
    <trip id="veh182" type="veh_passenger" depart="474.87" departLane="best" from="360935208#2" to="193030335#2"/>
    <trip id="veh183" type="veh_passenger" depart="477.48" departLane="best" from="-192657712#3" to="499726265"/>
    <trip id="veh184" type="veh_passenger" depart="480.09" departLane="best" from="191706895#1" to="193406092#1"/>
    <trip id="veh185" type="veh_passenger" depart="482.70" departLane="best" from="193133887#2" to="193026197#1"/>
    <trip id="veh186" type="veh_passenger" depart="485.31" departLane="best" from="239928745" to="194350650#0"/>
    <trip id="veh187" type="veh_passenger" depart="487.92" departLane="best" from="910969911#1" to="-362195741#1"/>
    <trip id="veh188" type="veh_passenger" depart="490.53" departLane="best" from="525465951#0" to="360922571#1"/>
    <trip id="veh189" type="veh_passenger" depart="493.14" departLane="best" departSpeed="max" from="1228261601" to="332728743"/>
    <trip id="veh190" type="veh_passenger" depart="495.74" departLane="best" from="-154237114#0" to="192657712#4"/>
    <trip id="veh191" type="veh_passenger" depart="498.35" departLane="best" from="193270185#1" to="349367691"/>
    <trip id="veh192" type="veh_passenger" depart="500.96" departLane="best" from="360933445" to="231293654"/>
    <trip id="veh193" type="veh_passenger" depart="503.57" departLane="best" from="193809813#0" to="396378808#2"/>
    <trip id="veh194" type="veh_passenger" depart="506.18" departLane="best" from="226668203#0" to="539518306#1"/>
    <trip id="veh195" type="veh_passenger" depart="508.79" departLane="best" from="406062451#1" to="-360938370#0"/>
    <trip id="veh196" type="veh_passenger" depart="511.40" departLane="best" from="-193133908#2" to="258524192#2"/>
    <trip id="veh197" type="veh_passenger" depart="514.01" departLane="best" from="360922572#0" to="193030342"/>
    <trip id="veh198" type="veh_passenger" depart="516.62" departLane="best" from="462356162#1" to="386046546#1"/>
    <trip id="veh199" type="veh_passenger" depart="519.23" departLane="best" from="-360936226#3" to="406078190"/>
    <trip id="veh200" type="veh_passenger" depart="521.84" departLane="best" from="366528694#6" to="-193026212#5"/>
    <trip id="veh201" type="veh_passenger" depart="524.45" departLane="best" from="-424816476#1" to="231958643#1"/>
    <trip id="veh202" type="veh_passenger" depart="527.05" departLane="best" from="49793804#2" to="-193133890#1"/>
    <trip id="veh203" type="veh_passenger" depart="529.66" departLane="best" from="193133906" to="360929410#0"/>
    <trip id="veh204" type="veh_passenger" depart="532.27" departLane="best" from="-362635565#1" to="368091928#0"/>
    <trip id="veh205" type="veh_passenger" depart="534.88" departLane="best" from="507082099" to="-504338190"/>
    <trip id="veh206" type="veh_passenger" depart="537.49" departLane="best" from="360935200#1" to="192657712#3"/>
    <trip id="veh207" type="veh_passenger" depart="540.10" departLane="best" from="377044933#1" to="396388560"/>
    <trip id="veh208" type="veh_passenger" depart="542.71" departLane="best" departSpeed="max" from="-360936222#1" to="978487723#0"/>
    <trip id="veh209" type="veh_passenger" depart="545.32" departLane="best" from="239925092" to="-193032315#0"/>
    <trip id="veh210" type="veh_passenger" depart="547.93" departLane="best" from="193030340" to="499726265"/>
    <trip id="veh211" type="veh_passenger" depart="550.54" departLane="best" from="199366531" to="457493243#1"/>
    <trip id="veh212" type="veh_passenger" depart="553.15" departLane="best" from="360935211#3" to="-360936226#0"/>
    <trip id="veh213" type="veh_passenger" depart="555.76" departLane="best" from="-344330284#2" to="368494308#0"/>
    <trip id="veh214" type="veh_passenger" depart="558.36" departLane="best" from="50783248" to="360922568#0"/>
    <trip id="veh215" type="veh_passenger" depart="560.97" departLane="best" from="368494304" to="240733802"/>
    <trip id="veh216" type="veh_passenger" depart="563.58" departLane="best" from="469561203" to="332728743"/>
    <trip id="veh217" type="veh_passenger" depart="566.19" departLane="best" from="50783634#3" to="377045467#0"/>
    <trip id="veh218" type="veh_passenger" depart="568.80" departLane="best" from="226668205#0" to="-912503366#1"/>
    <trip id="veh219" type="veh_passenger" depart="571.41" departLane="best" from="-424816479" to="360933445"/>
    <trip id="veh220" type="veh_passenger" depart="574.02" departLane="best" from="386046548" to="259426347#1"/>
    <trip id="veh221" type="veh_passenger" depart="576.63" departLane="best" from="358981142#2" to="-344857224"/>
    <trip id="veh222" type="veh_passenger" depart="579.24" departLane="best" from="193133896#0" to="192657712#1"/>
    <trip id="veh223" type="veh_passenger" depart="581.85" departLane="best" departSpeed="max" from="-539518304#1" to="193026224#5"/>
    <trip id="veh224" type="veh_passenger" depart="584.46" departLane="best" from="269016268" to="-330750483#1"/>
    <trip id="veh225" type="veh_passenger" depart="587.07" departLane="best" from="-396378809#3" to="368091899#1"/>
    <trip id="veh227" type="veh_passenger" depart="592.28" departLane="best" from="193133892#0" to="-330066202"/>
    <trip id="veh228" type="veh_passenger" depart="594.89" departLane="best" from="-193133907#2" to="-379582533"/>
    <trip id="veh229" type="veh_passenger" depart="597.50" departLane="best" departSpeed="max" from="193133931" to="547090203#0"/>
    <trip id="veh230" type="veh_passenger" depart="600.11" departLane="best" from="499726265" to="396378809#4"/>
    <trip id="veh231" type="veh_passenger" depart="602.72" departLane="best" from="-193032317#4" to="192657712#3"/>
    <trip id="veh232" type="veh_passenger" depart="605.33" departLane="best" from="193026220#0" to="386046557#1"/>
    <trip id="veh233" type="veh_passenger" depart="607.94" departLane="best" from="499162428" to="978455012#0"/>
    <trip id="veh234" type="veh_passenger" depart="610.55" departLane="best" from="368494306#1" to="358981136#1"/>
    <trip id="veh235" type="veh_passenger" depart="613.16" departLane="best" departSpeed="max" from="-386046525" to="-396388561#0"/>
    <trip id="veh236" type="veh_passenger" depart="615.77" departLane="best" from="-193311141#2" to="754719369#0"/>
    <trip id="veh237" type="veh_passenger" depart="618.38" departLane="best" from="193026204#1" to="362635565#1"/>
    <trip id="veh238" type="veh_passenger" depart="620.99" departLane="best" from="193133889#0" to="-360936223#5"/>
    <trip id="veh241" type="veh_passenger" depart="628.81" departLane="best" from="193133880#0" to="344153345#0"/>
    <trip id="veh242" type="veh_passenger" depart="631.42" departLane="best" from="-193026218#2" to="360935206"/>
    <trip id="veh243" type="veh_passenger" depart="634.03" departLane="best" from="-253047826#1" to="231292993"/>
    <trip id="veh244" type="veh_passenger" depart="636.64" departLane="best" from="193032315#2" to="193133904#3"/>
    <trip id="veh245" type="veh_passenger" depart="639.25" departLane="best" from="-377043811" to="193030333#1"/>
    <trip id="veh247" type="veh_passenger" depart="644.47" departLane="best" from="377044934" to="475997382#3"/>
    <trip id="veh248" type="veh_passenger" depart="647.08" departLane="best" departSpeed="max" from="-468138759" to="-193133907#1"/>
    <trip id="veh249" type="veh_passenger" depart="649.69" departLane="best" from="-193026210#1" to="-305435188#0"/>
    <trip id="veh250" type="veh_passenger" depart="652.30" departLane="best" from="990433209" to="193032318#1"/>
    <trip id="veh251" type="veh_passenger" depart="654.90" departLane="best" from="360929856#0" to="396388579"/>
    <trip id="veh252" type="veh_passenger" depart="657.51" departLane="best" from="360930639#1" to="387154803#0"/>
    <trip id="veh253" type="veh_passenger" depart="660.12" departLane="best" from="978455013#3" to="-377044933#2"/>
    <trip id="veh254" type="veh_passenger" depart="662.73" departLane="best" from="-193026210#3" to="344330284#3"/>
    <trip id="veh255" type="veh_passenger" depart="665.34" departLane="best" from="239925081#0" to="-360938373#1"/>
    <trip id="veh256" type="veh_passenger" depart="667.95" departLane="best" departSpeed="max" from="321744812" to="-396378813#1"/>
    <trip id="veh257" type="veh_passenger" depart="670.56" departLane="best" from="368494305#2" to="396378811#0"/>